Circuit: * C:\Users\rc3512hl\OneDrive - MNSCU\Summer_Research_2020\2020_WAG_Research_Documents\Lab_documents\4_wireAC\Draft1.asc

Direct Newton iteration failed to find .op point.  (Use ".option noopiter" to skip.)
Starting Gmin stepping
Gmin = 10
Gmin = 1.07374
Gmin = 0.115292
Gmin = 0.0123794
Gmin = 0.00132923
Gmin = 0.000142725
Gmin = 1.5325e-005
Gmin = 1.6455e-006
Gmin = 1.76685e-007
Gmin = 1.89714e-008
Gmin = 2.03704e-009
Gmin = 2.18725e-010
Gmin = 2.34854e-011
Gmin = 2.52173e-012
Gmin = 2.70769e-013
Gmin = 0
Gmin stepping succeeded in finding the operating point.


Date: Thu Feb 11 20:23:08 2021
Total elapsed time: 0.178 seconds.

tnom = 27
temp = 27
method = modified trap
totiter = 3488
traniter = 2805
tranpoints = 1064
accept = 1059
rejected = 5
matrix size = 83
fillins = 59
solver = Normal
Matrix Compiler1: 7.50 KB object code size  1.4/0.8/[0.3]
Matrix Compiler2: 8.29 KB object code size  1.0/1.4/[0.5]

