Circuit: * C:\Users\rc3512hl\OneDrive - MNSCU\Summer_Research_2020\2020_WAG_Research_Documents\Lab_documents\4_wireAC\OptoTest_2_3_21.asc

WARNING: Less than two connections to node NC_01.  This node is used by V1.
WARNING: Less than two connections to node N013.  This node is used by R1.
WARNING: Less than two connections to node NC_02.  This node is used by V6.
Direct Newton iteration failed to find .op point.  (Use ".option noopiter" to skip.)
Starting Gmin stepping
Gmin = 10
Gmin = 1.07374
Gmin = 0.115292
Gmin = 0.0123794
Gmin = 0.00132923
Gmin = 0.000142725
Gmin = 1.5325e-005
vernier = 0.5
Gmin = 3.1742e-006
vernier = 0.25
vernier = 0.125
vernier = 0.0625
vernier = 0.03125
vernier = 0.015625
vernier = 0.0078125
Gmin = 3.54329e-006
vernier = 0.00390625
Gmin = 3.50546e-006
vernier = 0.00520833
vernier = 0.00694444
Gmin = 3.45415e-006
vernier = 0.00925925
vernier = 0.0123457
Gmin = 3.3739e-006
vernier = 0.0164609
Gmin = 3.25146e-006
vernier = 0.0219478
vernier = 0.0292638
Gmin = 3.05602e-006
vernier = 0.0390184
vernier = 0.0520245
Gmin = 2.76889e-006
vernier = 0.0693659
Gmin = 2.37169e-006
vernier = 0.0924879
vernier = 0.123317
Gmin = 1.83124e-006
vernier = 0.164423
vernier = 0.21923
Gmin = 1.21635e-006
vernier = 0.292307
Gmin = 6.43545e-007
vernier = 0.389743
vernier = 0.519657
Gmin = 2.26007e-007
vernier = 0.692876
vernier = 0.923834
Gmin = 4.47992e-008
vernier = 0.461917
vernier = 0.230959
vernier = 0.115479
vernier = 0.0577396
vernier = 0.0288698
Gmin = 4.67384e-008
vernier = 0.0384931
Gmin = 4.29794e-008
vernier = 0.0513241
vernier = 0.0684321
Gmin = 3.74781e-008
vernier = 0.0912428
vernier = 0.121657
Gmin = 3.01921e-008
vernier = 0.162209
Gmin = 2.13066e-008
vernier = 0.216279
vernier = 0.288372
Gmin = 1.21154e-008
vernier = 0.384496
vernier = 0.512661
Gmin = 5.02469e-009
vernier = 0.683548
Gmin = 1.24931e-009
vernier = 0.911397
vernier = 1
Gmin = 1.59425e-010
Gmin = 1.71181e-011
Gmin = 1.83804e-012
Gmin = 1.97358e-013
Gmin = 0
Gmin stepping succeeded in finding the operating point.

Changing Tseed to 1e-008
Changing Tseed to 1e-010
Changing Tseed to 1e-007
Changing Tseed to 1e-011
Heightened Def Con from 1e-011 to 1.01e-009

Date: Thu Feb 11 20:42:45 2021
Total elapsed time: 2.736 seconds.

tnom = 27
temp = 27
method = modified trap
totiter = 18770
traniter = 16221
tranpoints = 8046
accept = 4832
rejected = 3211
matrix size = 219
fillins = 208
solver = Normal
Thread vector: 48.9/32.5[5] 23.4/12.1[5] 17.1/5.2[5] 1.9/2.0[1]  2592/500
Matrix Compiler1: 20.93 KB object code size  11.6/5.0/[2.0]
Matrix Compiler2: 23.05 KB object code size  7.6/9.1/[2.6]

