Circuit: * C:\Users\rc3512hl\OneDrive - MNSCU\Summer_Research_2020\2020_WAG_Research_Documents\Lab_documents\4_wireAC\ADC\Draft1.asc

Direct Newton iteration failed to find .op point.  (Use ".option noopiter" to skip.)
Starting Gmin stepping
Gmin = 10
Gmin = 1.07374
Gmin = 0.115292
Gmin = 0.0123794
Gmin = 0.00132923
Gmin = 0.000142725
Gmin = 1.5325e-005
Gmin = 1.6455e-006
Gmin = 1.76685e-007
Gmin = 1.89714e-008
Gmin = 2.03704e-009
Gmin = 2.18725e-010
Gmin = 2.34854e-011
Gmin = 2.52173e-012
Gmin = 2.70769e-013
Gmin = 0
Gmin stepping succeeded in finding the operating point.

Changing Tseed to 9.76562e-009
Heightened Def Con from 9.76562e-009 +to 1.07656e-008
Heightened Def Con from 1.07656e-008 +to 1.17656e-008
Heightened Def Con from 1.42656e-008 to 1.52656e-008
Heightened Def Con from 1.52656e-008 to 1.62656e-008
Heightened Def Con from 1.62656e-008 +to 1.72656e-008
Heightened Def Con from 1.72656e-008 to 1.82656e-008

Date: Wed Sep 23 20:47:50 2020
Total elapsed time: 0.219 seconds.

tnom = 27
temp = 27
method = modified trap
totiter = 5475
traniter = 4894
tranpoints = 1178
accept = 1073
rejected = 113
matrix size = 91
fillins = 100
solver = Normal
Matrix Compiler1: 11.59 KB object code size  2.3/1.2/[0.6]
Matrix Compiler2: 9.78 KB object code size  1.3/1.8/[0.6]

