Circuit: * C:\Users\rc3512hl\OneDrive - MNSCU\Summer_Research_2020\2020_WAG_Research_Documents\Lab_documents\4_wireAC\ADC\Sim_analog_GNDed_9_21_20.asc

Error on line 19 : v9 n008 0 v
	 Unknown parameter "v"
WARNING: Less than two connections to node NC_01.  This node is used by V6.
WARNING: Less than two connections to node NC_02.  This node is used by R11.
WARNING: Less than two connections to node NC_03.  This node is used by R13.
WARNING: Less than two connections to node N019.  This node is used by R.
V9: Missing value, assumed 0V @ DC
V7: Missing value, assumed 0V @ DC
Direct Newton iteration for .op point succeeded.
Changing Tseed to 9.76562e-009
Changing Tseed to 9.76563e-011
Changing Tseed to 9.76562e-008
Changing Tseed to 9.76562e-012
Changing Tseed to 9.76563e-007
Changing Tseed to 9.76562e-013
Changing Tseed to 9.76562e-006
Changing Tseed to 9.76563e-014
Changing Tseed to 9.76563e-005
Changing Tseed to 9.76562e-015
Changing Tseed to 0.000976563
Heightened Def Con from 0.00107422 +to 0.00107422
Heightened Def Con from 0.00107422 to 0.00107422
Heightened Def Con from 0.0157377 to 0.0157377
Heightened Def Con from 0.0257434 to 0.0257434
Heightened Def Con from 0.0395142 to 0.0395142
Heightened Def Con from 0.0395143 to 0.0395143
Heightened Def Con from 0.0395143 to 0.0395143
Heightened Def Con from 0.0457081 to 0.0457081
Heightened Def Con from 0.0757287 to 0.0757287
Heightened Def Con from 0.0923622 +to 0.0923622
Heightened Def Con from 0.0923622 to 0.0923622

Date: Mon Sep 21 16:34:49 2020
Total elapsed time: 0.824 seconds.

tnom = 27
temp = 27
method = modified trap
totiter = 5905
traniter = 5861
tranpoints = 1365
accept = 1183
rejected = 184
matrix size = 274
fillins = 261
solver = Normal
Thread vector: 73.9/53.3[4] 40.9/25.4[4] 21.5/18.0[3] 2.0/8.1[1]  2592/500
Matrix Compiler1: 37.74 KB object code size  15.5/23.8/[3.4]
Matrix Compiler2: 28.69 KB object code size  6.7/12.8/[4.9]

