Circuit: * C:\Users\rc3512hl\OneDrive - MNSCU\Summer_Research_2020\2020_WAG_Research_Documents\Lab_documents\4_wireAC\ADC\Sim_negADCinversion_9_18_20.asc

Error on line 24 : v9 n009 0 v
	 Unknown parameter "v"
WARNING: Less than two connections to node NC_01.  This node is used by V6.
WARNING: Less than two connections to node NC_02.  This node is used by R11.
WARNING: Less than two connections to node NC_03.  This node is used by R13.
WARNING: Less than two connections to node N021.  This node is used by R.
WARNING: Less than two connections to node N024.  This node is used by R14.
WARNING: Less than two connections to node N028.  This node is used by R17.
V9: Missing value, assumed 0V @ DC
V7: Missing value, assumed 0V @ DC
Direct Newton iteration failed to find .op point.  (Use ".option noopiter" to skip.)
Starting Gmin stepping
Gmin = 10
Gmin = 1.07374
Gmin = 0.115292
Gmin = 0.0123794
Gmin = 0.00132923
Gmin = 0.000142725
Gmin = 1.5325e-005
vernier = 0.5
Gmin = 3.1742e-006
vernier = 0.25
vernier = 0.125
vernier = 0.0625
vernier = 0.03125
Gmin = 3.46153e-006
vernier = 0.0416667
vernier = 0.0555555
Gmin = 3.0968e-006
vernier = 0.074074
vernier = 0.0987653
Gmin = 2.59738e-006
vernier = 0.131687
Gmin = 1.95539e-006
vernier = 0.175583
vernier = 0.23411
Gmin = 1.23344e-006
vernier = 0.312147
vernier = 0.416196
Gmin = 6.00096e-007
vernier = 0.554928
Gmin = 1.91061e-007
vernier = 0.739903
vernier = 0.986537
vernier = 0.493269
Gmin = 5.395e-008
vernier = 0.657691
Gmin = 1.35931e-008
vernier = 0.876922
vernier = 1
Gmin = 1.69497e-009
Gmin = 1.81996e-010
Gmin = 1.95417e-011
Gmin = 2.09827e-012
Gmin = 2.253e-013
Gmin = 0
Gmin stepping succeeded in finding the operating point.

Changing Tseed to 1e-008
Changing Tseed to 1e-010
Changing Tseed to 1e-007
Changing Tseed to 1e-011
Changing Tseed to 1e-006
Changing Tseed to 1e-012
Changing Tseed to 1e-005
Heightened Def Con from 1.1464e-005 to 1.1465e-005
Heightened Def Con from 0.0629355 to 0.0629355
Heightened Def Con from 0.0632776 to 0.0632776
Heightened Def Con from 0.436659 to 0.436659
Heightened Def Con from 1.43664 to 1.43664

Date: Wed Sep 23 20:44:37 2020
Total elapsed time: 1.900 seconds.

tnom = 27
temp = 27
method = modified trap
totiter = 5264
traniter = 3654
tranpoints = 1328
accept = 1234
rejected = 92
matrix size = 284
fillins = 287
solver = Normal
Thread vector: 78.1/43.3[4] 30.4/11.0[4] 35.2/14.1[4] 2.0/5.3[1]  2592/500
Matrix Compiler1: 33.02 KB object code size  18.9/8.9/[3.2]
Matrix Compiler2: 30.42 KB object code size  13.0/13.6/[3.6]

