Circuit: * C:\Users\rc3512hl\OneDrive - MNSCU\Summer_Research_2020\2020_WAG_Research_Documents\Lab_documents\4_wireAC\opto_Circ_1_29_21.asc

Direct Newton iteration failed to find .op point.  (Use ".option noopiter" to skip.)
Starting Gmin stepping
Gmin = 10
Gmin = 1.07374
Gmin = 0.115292
Gmin = 0.0123794
Gmin = 0.00132923
Gmin = 0.000142725
Gmin = 1.5325e-005
Gmin = 1.6455e-006
Gmin = 1.76685e-007
vernier = 0.5
vernier = 0.25
Gmin = 5.14632e-008
vernier = 0.125
vernier = 0.0625
vernier = 0.03125
Gmin = 4.69542e-008
vernier = 0.015625
vernier = 0.0078125
vernier = 0.0104167
Gmin = 4.6558e-008
vernier = 0.0138889
Gmin = 4.51669e-008
vernier = 0.0185185
vernier = 0.0246913
Gmin = 4.29795e-008
vernier = 0.0329218
vernier = 0.0438957
Gmin = 3.97324e-008
vernier = 0.0585276
Gmin = 3.49867e-008
vernier = 0.0780367
vernier = 0.104049
Gmin = 2.84308e-008
vernier = 0.138732
vernier = 0.184976
Gmin = 2.05048e-008
vernier = 0.246634
Gmin = 1.21273e-008
vernier = 0.328846
vernier = 0.438461
Gmin = 5.20465e-009
vernier = 0.584614
vernier = 0.779486
Gmin = 1.40636e-009
vernier = 1
Gmin = 1.89208e-010
Gmin = 2.03161e-011
Gmin = 2.18142e-012
Gmin = 2.34228e-013
Gmin = 0
Gmin stepping succeeded in finding the operating point.


Date: Wed Feb 03 21:27:56 2021
Total elapsed time: 0.692 seconds.

tnom = 27
temp = 27
method = modified trap
totiter = 3648
traniter = 2114
tranpoints = 1058
accept = 1056
rejected = 2
matrix size = 41
fillins = 40
solver = Normal
Thread vector: 34.4/21.9[3] 8.1/5.3[3] 4.2/2.4[3] 0.8/2.1[1]  2592/500
Matrix Compiler1: 5.02 KB object code size  3.4/1.9/[0.7]
Matrix Compiler2: 4.54 KB object code size  1.3/2.1/[0.7]

