Circuit: * C:\Users\rc3512hl\OneDrive - MNSCU\Research_Undergrad\Archived\Summer_Research_2020\2020_WAG_Research_Documents\4_wire_AC\4wireAC_LabWork\Analog (op-amp DC Offset)\AnalogCirc_3_6_21.asc

WARNING: Less than two connections to node NC_03.  This node is used by R:U12:4.
Direct Newton iteration failed to find .op point.  (Use ".option noopiter" to skip.)
Starting Gmin stepping
Gmin = 10
Gmin = 1.07374
Gmin = 0.115292
Gmin = 0.0123794
Gmin = 0.00132923
Gmin = 0.000142725
Gmin = 1.5325e-005
vernier = 0.5
Gmin = 3.1742e-006
vernier = 0.25
vernier = 0.125
vernier = 0.0625
vernier = 0.03125
Gmin = 3.05306e-006
vernier = 0.0416667
vernier = 0.0555555
Gmin = 2.71501e-006
vernier = 0.074074
vernier = 0.0987653
Gmin = 2.25315e-006
vernier = 0.131687
Gmin = 1.68273e-006
vernier = 0.175583
vernier = 0.23411
Gmin = 1.03577e-006
vernier = 0.312147
vernier = 0.416196
Gmin = 4.83148e-007
vernier = 0.554928
Gmin = 1.49141e-007
vernier = 0.739903
vernier = 0.986537
vernier = 0.493269
Gmin = 4.2691e-008
vernier = 0.246634
vernier = 0.123317
vernier = 0.0616586
Gmin = 4.37601e-008
vernier = 0.0822114
vernier = 0.109615
Gmin = 3.51721e-008
vernier = 0.146154
vernier = 0.194871
Gmin = 2.49347e-008
vernier = 0.259828
Gmin = 1.43499e-008
vernier = 0.346438
vernier = 0.461917
Gmin = 5.89783e-009
vernier = 0.615889
vernier = 0.821185
Gmin = 1.49294e-009
vernier = 1
Gmin = 1.92319e-010
Gmin = 2.06501e-011
Gmin = 2.21729e-012
Gmin = 2.38079e-013
Gmin = 0
Gmin stepping succeeded in finding the operating point.

Changing Tseed to 1e-008
Changing Tseed to 1e-010
Changing Tseed to 1e-007
Changing Tseed to 1e-011
Changing Tseed to 1e-006

Date: Sun Sep 12 18:54:47 2021
Total elapsed time: 1.621 seconds.

tnom = 27
temp = 27
method = modified trap
totiter = 4054
traniter = 2155
tranpoints = 1056
accept = 1047
rejected = 4
matrix size = 228
fillins = 291
solver = Normal
Thread vector: 77.9/41.5[8] 27.3/12.5[8] 18.6/12.0[8] 1.6/6.3[1]  2592/500
Matrix Compiler1: 25.08 KB object code size  18.4/8.6/[3.3]
Matrix Compiler2: 26.63 KB object code size  10.0/11.5/[2.1]

