Circuit: * C:\Users\rc3512hl\OneDrive - MNSCU\Research_Undergrad\4WireAC\LabFiles\LAB001_FallAcclimation\Draft1.asc

WARNING: Node VMOD is floating.

WARNING: Less than two connections to node VMOD.  This node is used by C2.
Direct Newton iteration failed to find .op point.  (Use ".option noopiter" to skip.)
Starting Gmin stepping
Gmin = 10
Gmin = 1.07374
Gmin = 0.115292
Gmin = 0.0123794
Gmin = 0.00132923
Gmin = 0.000142725
Gmin = 1.5325e-005
Gmin = 1.6455e-006
Gmin = 1.76685e-007
vernier = 0.5
vernier = 0.25
Gmin = 5.14632e-008
vernier = 0.125
vernier = 0.0625
Gmin = 4.41438e-008
vernier = 0.0833333
vernier = 0.111111
Gmin = 3.53761e-008
vernier = 0.148148
vernier = 0.197531
Gmin = 2.49639e-008
vernier = 0.263374
Gmin = 1.42619e-008
vernier = 0.351165
vernier = 0.46822
Gmin = 5.79409e-009
vernier = 0.624294
vernier = 0.832392
Gmin = 1.44127e-009
vernier = 1
Gmin = 1.83521e-010
Gmin = 1.97054e-011
Gmin = 2.11585e-012
Gmin = 2.27188e-013
Gmin = 0
Gmin stepping succeeded in finding the operating point.

.step r3=1000
.step r3=4000
.step r3=7000
.step r3=10000
.step r3=13000
.step r3=16000
.step r3=19000
.step r3=22000
.step r3=25000
.step r3=28000
.step r3=31000
.step r3=34000
.step r3=37000
.step r3=40000
.step r3=43000
.step r3=46000
.step r3=49000
.step r3=52000
.step r3=55000
.step r3=58000
.step r3=61000
.step r3=64000
.step r3=67000
.step r3=70000
.step r3=73000
.step r3=76000
.step r3=79000
.step r3=80000

Date: Fri Sep 17 22:59:40 2021
Total elapsed time: 2.851 seconds.

tnom = 27
temp = 27
method = modified trap
totiter = 1665
traniter = 672
tranpoints = 337
accept = 336
rejected = 1
matrix size = 25
fillins = 14
solver = Normal
Matrix Compiler1: 1.97 KB object code size  0.8/0.5/[0.2]
Matrix Compiler2: 2.37 KB object code size  0.7/0.9/[0.4]

