Circuit: * C:\Users\rc3512hl\OneDrive - MNSCU\Summer_Research_2020\2020_WAG_Research_Documents\4-wire AC Card\bipolar-to-unipolar.asc

Direct Newton iteration for .op point succeeded.

Date: Fri Aug 07 11:34:38 2020
Total elapsed time: 0.063 seconds.

tnom = 27
temp = 27
method = modified trap
totiter = 2093
traniter = 2090
tranpoints = 1046
accept = 1046
rejected = 0
matrix size = 6
fillins = 0
solver = Normal
Matrix Compiler1: 146 bytes object code size  0.1/0.0/[0.0]
Matrix Compiler2: off  [0.1]/0.1/0.1

