Circuit: * C:\Users\rc3512hl\OneDrive - MNSCU\Research_Undergrad\4WireAC\LabFiles\LAB003_InstAmpAndOptoOutput\Draft1.asc

Direct Newton iteration for .op point succeeded.
Heightened Def Con from 1.26975e-009 to 3.26975e-009
Heightened Def Con from 4.04194e-009 to 6.04194e-009

Date: Wed Oct 27 13:07:20 2021
Total elapsed time: 0.221 seconds.

tnom = 27
temp = 27
method = modified trap
totiter = 6059
traniter = 6035
tranpoints = 1600
accept = 1427
rejected = 175
matrix size = 87
fillins = 46
solver = Normal
Matrix Compiler1: 7.81 KB object code size  2.9/1.6/[0.7]
Matrix Compiler2: 8.64 KB object code size  1.5/2.1/[0.9]

