Circuit: * C:\Users\rc3512hl\OneDrive - MNSCU\Summer_Research_2020\2020_WAG_Research_Documents\4wire AC Card\GRT circuit\GRT_OLD_schematic_simulation.asc

WARNING: Less than two connections to node NC_01.  This node is used by V1.
WARNING: Less than two connections to node NC_02.  This node is used by V6.
Direct Newton iteration failed to find .op point.  (Use ".option noopiter" to skip.)
Starting Gmin stepping
Gmin = 10
Gmin = 1.07374
Gmin = 0.115292
Gmin = 0.0123794
Gmin = 0.00132923
Gmin = 0.000142725
Gmin = 1.5325e-005
vernier = 0.5
vernier = 0.25
Gmin = 3.78103e-006
vernier = 0.125
vernier = 0.0625
vernier = 0.03125
vernier = 0.015625
vernier = 0.0078125
vernier = 0.00390625
vernier = 0.00195313
Gmin = 3.34929e-006
vernier = 0.000976563
vernier = 0.000488281
Gmin = 0
Gmin stepping failed

Starting source stepping with srcstepmethod=0
Source Step = 3.0303%
Source Step = 33.3333%
Source Step = 36.3755%
Source Step = 36.4051%
Source Step = 36.4347%
Source Step = 36.4643%
Source Step = 36.4938%
vernier = 0.00146484
Source Step = 36.5264%
Source Step = 36.5708%
Source Step = 36.6152%
Source Step = 36.6596%
Source Step = 36.704%
vernier = 0.00219727
Source Step = 36.7506%
Source Step = 36.8171%
Source Step = 36.8837%
Source Step = 36.9503%
Source Step = 37.0169%
Source Step = 37.0835%
vernier = 0.0032959
Source Step = 37.1834%
Source Step = 37.2832%
Source Step = 37.3831%
Source Step = 37.483%
Source Step = 37.5829%
vernier = 0.00494385
Source Step = 37.7277%
Source Step = 37.8775%
Source Step = 38.0273%
Source Step = 38.1771%
Source Step = 38.3269%
vernier = 0.00741577
Source Step = 38.5367%
Source Step = 38.7614%
Source Step = 38.9861%
Source Step = 39.2108%
Source Step = 39.4356%
vernier = 0.0111237
Source Step = 39.7389%
Source Step = 40.076%
Source Step = 40.4131%
Source Step = 40.7502%
Source Step = 41.0872%
vernier = 0.0166855
Source Step = 41.5255%
Source Step = 42.0311%
Source Step = 42.5367%
Source Step = 43.0423%
Source Step = 43.5479%
vernier = 0.0250282
Source Step = 44.18%
Source Step = 44.9384%
Source Step = 45.6968%
Source Step = 46.4553%
Source Step = 47.2137%
vernier = 0.0375423
Source Step = 48.1238%
Source Step = 49.2615%
Source Step = 50.3991%
Source Step = 51.5367%
Source Step = 52.6744%
vernier = 0.0563135
Source Step = 53.9827%
Source Step = 55.6892%
Source Step = 57.3956%
Source Step = 59.1021%
Source Step = 60.8086%
vernier = 0.0844703
Source Step = 62.6857%
Source Step = 65.2454%
Source Step = 67.8051%
Source Step = 70.3648%
Source Step = 72.9245%
vernier = 0.126705
Source Step = 75.6122%
Source Step = 79.4518%
Source Step = 83.2913%
Source Step = 87.1309%
Source Step = 90.9704%
Source Step = 94.81%
vernier = 0.190058
Source Step = 100%
Source stepping succeeded in finding the operating point.

Heightened Def Con from 2.31445e-009 to 4.31445e-009

Date: Tue Nov 10 13:28:47 2020
Total elapsed time: 2.440 seconds.

tnom = 27
temp = 27
method = modified trap
totiter = 18803
traniter = 12525
tranpoints = 6174
accept = 5099
rejected = 1076
matrix size = 177
fillins = 179
solver = Normal
Thread vector: 33.0/14.1[3] 11.8/6.4[3] 6.5/3.6[3] 1.0/1.4[1]  2592/500
Matrix Compiler1: 16.58 KB object code size  7.3/3.9/[1.0]
Matrix Compiler2: 19.08 KB object code size  3.4/5.5/[1.6]

