Circuit: * C:\Users\rc3512hl\OneDrive - MNSCU\Summer_Research_2020\2020_WAG_Research_Documents\4wire AC Card\GRT circuit\Draft1.asc

Direct Newton iteration for .op point succeeded.

Date: Fri Sep 04 21:33:41 2020
Total elapsed time: 0.208 seconds.

tnom = 27
temp = 27
method = modified trap
totiter = 7401
traniter = 7398
tranpoints = 3700
accept = 3700
rejected = 0
matrix size = 3
fillins = 0
solver = Normal
Matrix Compiler1: 50 bytes object code size  0.1/0.1/[0.0]
Matrix Compiler2: off  [0.1]/0.1/0.1

