Circuit: * C:\Users\rc3512hl\OneDrive - MNSCU\Summer_Research_2020\2020_WAG_Research_Documents\Lab_documents\4_wireAC\Sin_wave\Draft1.asc

Direct Newton iteration for .op point succeeded.

Date: Wed Sep 30 14:32:59 2020
Total elapsed time: 0.119 seconds.

tnom = 27
temp = 27
method = modified trap
totiter = 2094
traniter = 2088
tranpoints = 1045
accept = 1045
rejected = 0
matrix size = 3
fillins = 0
solver = Normal
Matrix Compiler1: off  [0.1]/0.1/0.2
Matrix Compiler2: off  [0.1]/0.3/0.2

