Circuit: * C:\Users\rc3512hl\OneDrive - MNSCU\Summer_Research_2020\2020_WAG_Research_Documents\Lab_documents\4_wireAC\Sin_wave\PWMmodulationSINEwave_Simulation.asc

Direct Newton iteration for .op point succeeded.

Date: Sun Sep 06 14:04:49 2020
Total elapsed time: 0.169 seconds.

tnom = 27
temp = 27
method = modified trap
totiter = 13367
traniter = 13364
tranpoints = 6683
accept = 6683
rejected = 0
matrix size = 3
fillins = 0
solver = Normal
Matrix Compiler1: 50 bytes object code size  0.1/0.1/[0.0]
Matrix Compiler2: off  [0.1]/0.1/0.1

