Circuit: * C:\Users\rc3512hl\OneDrive - MNSCU\Summer_Research_2020\2020_WAG_Research_Documents\Lab_documents\4_wireAC\Sin_wave\Subtract_DCoffset_SinewaveMod_9_29_20.asc

WARNING: Less than two connections to node NC_01.  This node is used by V1.
WARNING: Less than two connections to node NC_02.  This node is used by V6.
Direct Newton iteration failed to find .op point.  (Use ".option noopiter" to skip.)
Starting Gmin stepping
Gmin = 10
Gmin = 1.07374
Gmin = 0.115292
Gmin = 0.0123794
Gmin = 0.00132923
Gmin = 0.000142725
Gmin = 1.5325e-005
vernier = 0.5
Gmin = 3.1742e-006
vernier = 0.25
vernier = 0.125
vernier = 0.0625
vernier = 0.03125
vernier = 0.015625
vernier = 0.0078125
Gmin = 3.54329e-006
vernier = 0.00390625
vernier = 0.00520833
vernier = 0.00260417
vernier = 0.00130208
Gmin = 3.52146e-006
vernier = 0.000651042
vernier = 0.000868055
Gmin = 3.51554e-006
vernier = 0.00115741
vernier = 0.00154321
Gmin = 3.50521e-006
vernier = 0.00205761
Gmin = 3.48903e-006
vernier = 0.00274348
vernier = 0.00365797
Gmin = 3.46202e-006
vernier = 0.0048773
vernier = 0.00650306
Gmin = 3.4194e-006
vernier = 0.00867074
Gmin = 3.3534e-006
vernier = 0.011561
vernier = 0.0154146
Gmin = 3.24551e-006
vernier = 0.0205529
vernier = 0.0274038
Gmin = 3.08076e-006
vernier = 0.0365384
Gmin = 2.83859e-006
vernier = 0.0487178
vernier = 0.0649571
Gmin = 2.47499e-006
vernier = 0.0866095
vernier = 0.115479
Gmin = 1.99086e-006
vernier = 0.153972
Gmin = 1.41637e-006
vernier = 0.205296
vernier = 0.273728
Gmin = 8.04953e-007
vernier = 0.364971
vernier = 0.486628
Gmin = 3.31916e-007
vernier = 0.648837
Gmin = 8.50906e-008
vernier = 0.865116
vernier = 1
Gmin = 1.07657e-008
Gmin = 1.15596e-009
Gmin = 1.2412e-010
Gmin = 1.33273e-011
Gmin = 1.43101e-012
Gmin = 1.53653e-013
Gmin = 0
Gmin stepping succeeded in finding the operating point.

Changing Tseed to 1e-008
Changing Tseed to 1e-010
Heightened Def Con from 1e-010 to 2.1e-009

Date: Mon Oct 05 17:26:43 2020
Total elapsed time: 2.889 seconds.

tnom = 27
temp = 27
method = modified trap
totiter = 18531
traniter = 16198
tranpoints = 8032
accept = 4824
rejected = 3207
matrix size = 188
fillins = 170
solver = Normal
Thread vector: 28.3/17.1[3] 22.8/7.9[3] 18.5/8.2[3] 1.2/3.7[1]  2592/500
Matrix Compiler1: 17.18 KB object code size  8.9/6.0/[1.7]
Matrix Compiler2: 19.63 KB object code size  16.3/9.1/[2.2]

