Circuit: * C:\Users\rc3512hl\OneDrive - MNSCU\Summer_Research_2020\2020_WAG_Research_Documents\Lab_documents\4_wireAC\Analog (op-amp DC Offset)\AnalogCirc_3_9_21.asc

WARNING: Node VOUT is floating.

WARNING: Less than two connections to node NC_02.  This node is used by R:U12:4.
WARNING: Less than two connections to node VOUT.  This node is used by C7.
Direct Newton iteration failed to find .op point.  (Use ".option noopiter" to skip.)
Starting Gmin stepping
Gmin = 10
Gmin = 1.07374
Gmin = 0.115292
Gmin = 0.0123794
Gmin = 0.00132923
Gmin = 0.000142725
Gmin = 1.5325e-005
Gmin = 1.6455e-006
vernier = 0.5
vernier = 0.666667
Gmin = 5.00922e-007
vernier = 0.888888
Gmin = 8.49738e-008
vernier = 1
vernier = 0.5
vernier = 0.25
vernier = 0.125
vernier = 0.0625
vernier = 0.03125
Gmin = 4.94393e-008
vernier = 0.015625
vernier = 0.0078125
vernier = 0.00390625
vernier = 0.00195313
vernier = 0.000976563
vernier = 0.000488281
Gmin = 0
Gmin stepping failed

Starting source stepping with srcstepmethod=0
Source Step = 3.0303%
Source Step = 28.0303%
Source Step = 35.6061%
Source Step = 43.1818%
Source Step = 50.7576%
Source Step = 58.3333%
Source Step = 65.9091%
vernier = 0.375
Source Step = 77.2727%
Source Step = 88.6364%
Source Step = 100%
Source stepping succeeded in finding the operating point.

Changing Tseed to 1e-008
Changing Tseed to 1e-010
Changing Tseed to 1e-007
Changing Tseed to 1e-011
Changing Tseed to 1e-006

Date: Mon Apr 12 19:37:35 2021
Total elapsed time: 2.757 seconds.

tnom = 27
temp = 27
method = modified trap
totiter = 6510
traniter = 3346
tranpoints = 799
accept = 632
rejected = 162
matrix size = 228
fillins = 385
solver = Normal
Thread vector: 77.2/28.4[8] 45.1/16.2[8] 45.6/19.3[8] 3.6/4.9[1]  2592/500
Matrix Compiler1: 38.76 KB object code size  21.3/13.8/[4.6]
Matrix Compiler2: 28.11 KB object code size  16.2/39.3/[5.3]

